#### CIF created by Crystallographica 2 ####

data_AluminiumOxideTheta

_audit_creation_method                    'Crystallographica 2' 
_cell_angle_alpha                         90 
_cell_angle_beta                          103.79 
_cell_angle_gamma                         90 
_cell_formula_units_Z                     4 
_cell_length_a                            11.795 
_cell_length_b                            2.91 
_cell_length_c                            5.621 
_cell_volume                              187.371 
_cgraph_comments                         'Structural studies of transition aluminas. Theta alumina
'
_cgraph_title                            'Aluminium Oxide - Theta'
_chemical_formula_sum                    'Al2 O3'
_symmetry_space_group_name_H-M           'C 2/m'
_symmetry_space_group_name_Hall          '-C 2y'

loop_
        _symmetry_equiv_pos_as_xyz
        'x, y, z'
        'x+1/2, y+1/2, z'
        '-x, -y, -z'
        '-x+1/2, -y+1/2, -z'
        '-x, y, -z'
        '-x+1/2, y+1/2, -z'
        'x, -y, z'
        'x+1/2, -y+1/2, z'

loop_
        _atom_site_label
        _atom_site_type_symbol
        _atom_site_fract_x
        _atom_site_fract_y
        _atom_site_fract_z
        _atom_site_U_iso_or_equiv
        _atom_site_thermal_displace_type
        _atom_site_occupancy
        O1 O2- 0.1626 0 0.1227 0.0145649 Uiso 1
        O2 O2- 0.4894 0 0.2612 0.00709248 Uiso 1
        O3 O2- 0.8299 0 0.4386 0.00683918 Uiso 1
        Al1 Al3+ 0.1013 0 0.7944 0.0260902 Uiso 1
        Al2 Al3+ 0.3523 0 0.6873 0.0162114 Uiso 1

_eof

#### End of Crystallographic Information File ####
