#### CIF created by Crystallographica 2 ####

data_ScandiumOxide

_audit_creation_method                    'Crystallographica 2' 
_cell_angle_alpha                         90 
_cell_angle_beta                          90 
_cell_angle_gamma                         90 
_cell_formula_units_Z                     16 
_cell_length_a                            9.79 
_cell_length_b                            9.79 
_cell_length_c                            9.79 
_cell_volume                              938.314 
_cgraph_comments                         'Untersuchungen ueber die Kristallstruktur von Sesquioxyden 
     und Verbindungen ABO3
'
_cgraph_title                            'Scandium Oxide'
_chemical_formula_sum                    'Sc2 O3'
_symmetry_space_group_name_H-M           'I 21 3'
_symmetry_space_group_name_Hall          ' I 2b 2c 3'

loop_
        _symmetry_equiv_pos_as_xyz
        'x, y, z'
        'x+1/2, y+1/2, z+1/2'
        'z, x, y'
        'z+1/2, x+1/2, y+1/2'
        'y, z, x'
        'y+1/2, z+1/2, x+1/2'
        '-y, -z+1/2, x'
        '-y+1/2, -z, x+1/2'
        'z, -x, -y+1/2'
        'z+1/2, -x+1/2, -y'
        '-y+1/2, z, -x'
        '-y, z+1/2, -x+1/2'
        '-z, -x+1/2, y'
        '-z+1/2, -x, y+1/2'
        '-z+1/2, x, -y'
        '-z, x+1/2, -y+1/2'
        'y, -z, -x+1/2'
        'y+1/2, -z+1/2, -x'
        '-x, -y+1/2, z'
        '-x+1/2, -y, z+1/2'
        'x, -y, -z+1/2'
        'x+1/2, -y+1/2, -z'
        '-x+1/2, y, -z'
        '-x, y+1/2, -z+1/2'

loop_
        _atom_site_label
        _atom_site_type_symbol
        _atom_site_fract_x
        _atom_site_fract_y
        _atom_site_fract_z
        _atom_site_U_iso_or_equiv
        _atom_site_thermal_displace_type
        _atom_site_occupancy
        Sc1 Sc3+ 0.25 0.25 0.25 0 Uiso 1
        Sc2 Sc3+ 0.021 0 0.25 0 Uiso 1
        Sc3 Sc3+ 0.542 0 0.25 0 Uiso 1
        O1 O2- 0.125 0.125 0.375 0 Uiso 1
        O2 O2- 0.125 0.375 0.375 0 Uiso 1

_eof

#### End of Crystallographic Information File ####
