#### CIF created by Crystallographica 2 ####

data_TitaniumOxideBeta

_audit_creation_method                    'Crystallographica 2' 
_cell_angle_alpha                         90 
_cell_angle_beta                          107.039 
_cell_angle_gamma                         90 
_cell_formula_units_Z                     8 
_cell_length_a                            12.1904 
_cell_length_b                            3.7485 
_cell_length_c                            6.5296 
_cell_volume                              285.278 
_cgraph_comments                         'Structure of beta - Ti O2
'
_cgraph_title                            'Titanium Oxide - Beta'
_chemical_formula_sum                    'Ti O2'
_symmetry_space_group_name_H-M           'C 2/m'
_symmetry_space_group_name_Hall          '-C 2y'

loop_
        _symmetry_equiv_pos_as_xyz
        'x, y, z'
        'x+1/2, y+1/2, z'
        '-x, -y, -z'
        '-x+1/2, -y+1/2, -z'
        '-x, y, -z'
        '-x+1/2, y+1/2, -z'
        'x, -y, z'
        'x+1/2, -y+1/2, z'

loop_
        _atom_site_label
        _atom_site_type_symbol
        _atom_site_fract_x
        _atom_site_fract_y
        _atom_site_fract_z
        _atom_site_U_iso_or_equiv
        _atom_site_thermal_displace_type
        _atom_site_occupancy
        Ti1 Ti4+ 0.1956 0 0.2924 0.01187 Uiso 1
        Ti2 Ti4+ 0.1007 0 0.7009 0.00520006 Uiso 1
        O1 O2- 0.1418 0 0.0253 0.00887004 Uiso 1
        O2 O2- 0.0604 0 0.3604 0.00887004 Uiso 1
        O3 O2- 0.365 0 0.2983 0.00887004 Uiso 1
        O4 O2- 0.2655 0 0.6669 0.00887004 Uiso 1

_eof

#### End of Crystallographic Information File ####
